---- qbsp / ericw-tools v0.18.1-32-g6660c5f ----
Input file: C:\Users\Ohmo\Desktop\Shoot!_MapData\maps\M1E1.map
Output file: C:\Users\Ohmo\Desktop\Shoot!_MapData\maps\M1E1.bsp

---- LoadMapFile ----
WARNING: repairing invalid texture projection on line 1103 ("Wall0" near 288 -1056 80)
WARNING: repairing invalid texture projection on line 1104 ("Wall0" near 304 -1256 64)
WARNING: repairing invalid texture projection on line 1105 ("Wall0" near 304 -1184 64)
WARNING: repairing invalid texture projection on line 1106 ("Wall0" near 432 -1056 128)
WARNING: repairing invalid texture projection on line 1107 ("Wall0" near 304 -1208 64)
WARNING: repairing invalid texture projection on line 1108 ("Wall0" near 304 -1056 80)
*** WARNING 06: No info_player_deathmatch entities in level
         1600 faces
          264 brushes
           82 entities
           12 unique texnames
          540 texinfo

Opened WAD: C:/Users/Ohmo/Desktop/ShootMappingTools/CustomWad1.wad
Opened WAD: C:/Users/Ohmo/Desktop/ShootMappingTools/CustomWad1.wad
Opened WAD: C:/Users/Ohmo/Desktop/Shoot!_MapData/CustomWad1.wad
Processing hull 0...
---- Brush_LoadEntity ----
          241 brushes
          226 planes
---- CSGFaces ----
         1466 brushfaces
         1399 csgfaces
         1299 mergedfaces
---- SolidBSP ----
         2016 split nodes
          726 solid leafs
         1291 empty leafs
            0 water leafs
            0 detail leafs
            0 detail illusionary leafs
            0 detail fence leafs
            0 illusionary visblocker leafs
         3734 leaffaces
         3556 nodefaces
---- Portalize ----
         1291 vis leafs
         1291 vis clusters
         3326 vis portals
---- FillOutside ----
*** WARNING 10: Reached occupant at (-1980 772 92), no filling performed.
Leak file written to C:\Users\Ohmo\Desktop\Shoot!_MapData\maps\M1E1.pts
---- MakeFaceEdges ----
---- GrowRegions ----
Processing hull 1...
*** WARNING 10: Reached occupant at (1280 -16 16), no filling performed.
Processing hull 2...
*** WARNING 10: Reached occupant at (1280 -16 16), no filling performed.
*** WARNING 16: Texture __TB_empty not found
---- WriteBSPFile ----
Wrote C:\Users\Ohmo\Desktop\Shoot!_MapData\maps\M1E1.bsp
          567 planes            11340
         4162 vertexes          49944
         2150 nodes             51600
          456 texinfo           18240
         3766 faces             75320
         4818 clipnodes         38544
         1426 leafs             39928
         3944 marksurfaces       7888
        15034 surfedges         60136
         9338 edges             37352
           12 textures         189532
              lightdata             0
              visdata               0
              entdata            5713

0.365 seconds elapsed
Peak memory usage: 20505468 (19.6M)
